GMLCDjangoProject/MapApp/static/MapApp/data/transmission/scenario0.csv
,node,voltage_magnitude,voltage_angle,active_power,reactive_power,month,hour_of_day,day_of_month,daytype,timezone
0,WECCbus154,343.1715,-60.52,956.6,157.7,february,16,28,weekday,US/Pacific
1,WECCbus154,343.344,-59.61,925.5,158.9,february,17,28,weekday,US/Pacific
2,WECCbus154,343.413,-59.17,910.7,159.5,february,18,28,weekday,US/Pacific
3,WECCbus154,343.3785,-59.34,916.3,159.2,february,19,28,weekday,US/Pacific
4,WECCbus154,343.3095,-59.71,929.0,158.8,february,20,28,weekday,US/Pacific
5,WECCbus154,342.93,-61.81,999.8,156.1,february,21,28,weekday,US/Pacific
6,WECCbus154,342.24,-65.45,1119.0,151.6,february,22,28,weekday,US/Pacific
7,WECCbus154,341.9985,-66.59,1155.0,150.2,february,23,28,weekday,US/Pacific
8,WECCbus154,342.2745,-65.28,1113.0,151.8,march,0,1,weekday,US/Pacific
9,WECCbus154,342.37800000000004,-64.75,1096.0,152.4,march,1,1,weekday,US/Pacific
10,WECCbus154,342.585,-63.71,1063.0,153.7,march,2,1,weekday,US/Pacific
11,WECCbus154,342.792,-62.51,1023.0,155.2,march,3,1,weekday,US/Pacific
12,WECCbus154,342.93,-61.9,1003.0,156.0,march,4,1,weekday,US/Pacific
13,WECCbus154,342.8955,-62.03,1007.0,155.8,march,5,1,weekday,US/Pacific
14,WECCbus154,342.861,-62.27,1015.0,155.5,march,6,1,weekday,US/Pacific
15,WECCbus154,342.7575,-62.78,1032.0,154.9,march,7,1,weekday,US/Pacific
16,WECCbus154,342.6885,-63.18,1045.0,154.4,march,8,1,weekday,US/Pacific
17,WECCbus154,342.2745,-65.21,1111.0,151.9,march,9,1,weekday,US/Pacific
18,WECCbus154,341.619,-68.39,1212.0,148.0,march,10,1,weekday,US/Pacific
19,WECCbus154,341.55,-68.66,1220.0,147.6,march,11,1,weekday,US/Pacific
20,WECCbus154,341.7915,-67.65,1189.0,148.9,march,12,1,weekday,US/Pacific
21,WECCbus154,342.171,-65.79,1130.0,151.1,march,13,1,weekday,US/Pacific
22,WECCbus154,342.654,-63.24,1047.0,154.3,march,14,1,weekday,US/Pacific
23,WECCbus154,342.9645,-61.59,992.5,156.4,march,15,1,weekday,US/Pacific
24,WECCbus154,343.1715,-60.52,956.6,157.7,march,16,1,weekday,US/Pacific
25,WECCbus154,343.344,-59.61,925.5,158.9,march,17,1,weekday,US/Pacific
26,WECCbus154,343.413,-59.17,910.7,159.5,march,18,1,weekday,US/Pacific
27,WECCbus154,343.3785,-59.34,916.3,159.2,march,19,1,weekday,US/Pacific
28,WECCbus154,343.3095,-59.71,929.0,158.8,march,20,1,weekday,US/Pacific
29,WECCbus154,342.93,-61.81,999.8,156.1,march,21,1,weekday,US/Pacific
30,WECCbus154,342.24,-65.45,1119.0,151.6,march,22,1,weekday,US/Pacific
31,WECCbus154,341.9985,-66.59,1155.0,150.2,march,23,1,weekday,US/Pacific
32,WECCbus154,342.2745,-65.28,1113.0,151.8,march,0,2,weekday,US/Pacific
33,WECCbus154,342.37800000000004,-64.75,1096.0,152.4,march,1,2,weekday,US/Pacific
34,WECCbus154,342.585,-63.71,1063.0,153.7,march,2,2,weekday,US/Pacific
35,WECCbus154,342.792,-62.51,1023.0,155.2,march,3,2,weekday,US/Pacific
36,WECCbus154,342.93,-61.9,1003.0,156.0,march,4,2,weekday,US/Pacific
37,WECCbus154,342.8955,-62.03,1007.0,155.8,march,5,2,weekday,US/Pacific
38,WECCbus154,342.861,-62.27,1015.0,155.5,march,6,2,weekday,US/Pacific
39,WECCbus154,342.7575,-62.78,1032.0,154.9,march,7,2,weekday,US/Pacific
40,WECCbus154,342.6885,-63.18,1045.0,154.4,march,8,2,weekday,US/Pacific
41,WECCbus154,342.2745,-65.21,1111.0,151.9,march,9,2,weekday,US/Pacific
42,WECCbus154,341.619,-68.39,1212.0,148.0,march,10,2,weekday,US/Pacific
43,WECCbus154,341.55,-68.66,1220.0,147.6,march,11,2,weekday,US/Pacific
44,WECCbus154,341.7915,-67.65,1189.0,148.9,march,12,2,weekday,US/Pacific
45,WECCbus154,342.171,-65.79,1130.0,151.1,march,13,2,weekday,US/Pacific
46,WECCbus154,342.654,-63.24,1047.0,154.3,march,14,2,weekday,US/Pacific
47,WECCbus154,342.9645,-61.59,992.5,156.4,march,15,2,weekday,US/Pacific
48,WECCbus154,343.1715,-60.52,956.6,157.7,march,16,2,weekday,US/Pacific
49,WECCbus154,343.344,-59.61,925.5,158.9,march,17,2,weekday,US/Pacific
50,WECCbus154,343.413,-59.17,910.7,159.5,march,18,2,weekday,US/Pacific
51,WECCbus154,343.3785,-59.34,916.3,159.2,march,19,2,weekday,US/Pacific
52,WECCbus154,343.3095,-59.71,929.0,158.8,march,20,2,weekday,US/Pacific
53,WECCbus154,342.93,-61.81,999.8,156.1,march,21,2,weekday,US/Pacific
54,WECCbus154,342.24,-65.45,1119.0,151.6,march,22,2,weekday,US/Pacific
55,WECCbus154,341.9985,-66.59,1155.0,150.2,march,23,2,weekday,US/Pacific
56,WECCbus154,342.2745,-65.28,1113.0,151.8,march,0,3,weekday,US/Pacific
57,WECCbus154,342.37800000000004,-64.75,1096.0,152.4,march,1,3,weekday,US/Pacific
58,WECCbus154,342.585,-63.71,1063.0,153.7,march,2,3,weekday,US/Pacific
59,WECCbus154,342.792,-62.51,1023.0,155.2,march,3,3,weekday,US/Pacific
60,WECCbus154,342.93,-61.9,1003.0,156.0,march,4,3,weekday,US/Pacific
61,WECCbus154,342.8955,-62.03,1007.0,155.8,march,5,3,weekday,US/Pacific
62,WECCbus154,342.861,-62.27,1015.0,155.5,march,6,3,weekday,US/Pacific
63,WECCbus154,342.7575,-62.78,1032.0,154.9,march,7,3,weekday,US/Pacific
64,WECCbus154,342.6885,-63.18,1045.0,154.4,march,8,3,weekday,US/Pacific
65,WECCbus154,342.2745,-65.21,1111.0,151.9,march,9,3,weekday,US/Pacific
66,WECCbus154,341.619,-68.39,1212.0,148.0,march,10,3,weekday,US/Pacific
67,WECCbus154,341.55,-68.66,1220.0,147.6,march,11,3,weekday,US/Pacific
68,WECCbus154,341.7915,-67.65,1189.0,148.9,march,12,3,weekday,US/Pacific
69,WECCbus154,342.171,-65.79,1130.0,151.1,march,13,3,weekday,US/Pacific
70,WECCbus154,342.654,-63.24,1047.0,154.3,march,14,3,weekday,US/Pacific
71,WECCbus154,342.9645,-61.59,992.5,156.4,march,15,3,weekday,US/Pacific
72,WECCbus154,343.1715,-60.52,956.6,157.7,march,16,3,weekday,US/Pacific
73,WECCbus154,343.344,-59.61,925.5,158.9,march,17,3,weekday,US/Pacific
74,WECCbus154,343.413,-59.17,910.7,159.5,march,18,3,weekday,US/Pacific
75,WECCbus154,343.3785,-59.34,916.3,159.2,march,19,3,weekday,US/Pacific
76,WECCbus154,343.3095,-59.71,929.0,158.8,march,20,3,weekday,US/Pacific
77,WECCbus154,342.93,-61.81,999.8,156.1,march,21,3,weekday,US/Pacific
78,WECCbus154,342.24,-65.45,1119.0,151.6,march,22,3,weekday,US/Pacific
79,WECCbus154,341.9985,-66.59,1155.0,150.2,march,23,3,weekday,US/Pacific
80,WECCbus154,342.2745,-65.28,1113.0,151.8,march,0,4,weekend,US/Pacific
81,WECCbus154,342.37800000000004,-64.75,1096.0,152.4,march,1,4,weekend,US/Pacific
82,WECCbus154,342.585,-63.71,1063.0,153.7,march,2,4,weekend,US/Pacific
83,WECCbus154,342.792,-62.51,1023.0,155.2,march,3,4,weekend,US/Pacific
84,WECCbus154,342.93,-61.9,1003.0,156.0,march,4,4,weekend,US/Pacific
85,WECCbus154,342.8955,-62.03,1007.0,155.8,march,5,4,weekend,US/Pacific
86,WECCbus154,342.861,-62.27,1015.0,155.5,march,6,4,weekend,US/Pacific
87,WECCbus154,342.7575,-62.78,1032.0,154.9,march,7,4,weekend,US/Pacific
88,WECCbus154,342.6885,-63.18,1045.0,154.4,march,8,4,weekend,US/Pacific
89,WECCbus154,342.2745,-65.21,1111.0,151.9,march,9,4,weekend,US/Pacific
90,WECCbus154,341.619,-68.39,1212.0,148.0,march,10,4,weekend,US/Pacific
91,WECCbus154,341.55,-68.66,1220.0,147.6,march,11,4,weekend,US/Pacific
92,WECCbus154,341.7915,-67.65,1189.0,148.9,march,12,4,weekend,US/Pacific
93,WECCbus154,342.171,-65.79,1130.0,151.1,march,13,4,weekend,US/Pacific
94,WECCbus154,342.654,-63.24,1047.0,154.3,march,14,4,weekend,US/Pacific
95,WECCbus154,342.9645,-61.59,992.5,156.4,march,15,4,weekend,US/Pacific
96,WECCbus154,343.1715,-60.52,956.6,157.7,march,16,4,weekend,US/Pacific
97,WECCbus154,343.344,-59.61,925.5,158.9,march,17,4,weekend,US/Pacific
98,WECCbus154,343.413,-59.17,910.7,159.5,march,18,4,weekend,US/Pacific
99,WECCbus154,343.3785,-59.34,916.3,159.2,march,19,4,weekend,US/Pacific
100,WECCbus154,343.3095,-59.71,929.0,158.8,march,20,4,weekend,US/Pacific
101,WECCbus154,342.93,-61.81,999.8,156.1,march,21,4,weekend,US/Pacific
102,WECCbus154,342.24,-65.45,1119.0,151.6,march,22,4,weekend,US/Pacific
103,WECCbus154,341.9985,-66.59,1155.0,150.2,march,23,4,weekend,US/Pacific
104,WECCbus154,342.2745,-65.28,1113.0,151.8,march,0,5,weekend,US/Pacific
105,WECCbus154,342.37800000000004,-64.75,1096.0,152.4,march,1,5,weekend,US/Pacific
106,WECCbus154,342.585,-63.71,1063.0,153.7,march,2,5,weekend,US/Pacific
107,WECCbus154,342.792,-62.51,1023.0,155.2,march,3,5,weekend,US/Pacific
108,WECCbus154,342.93,-61.9,1003.0,156.0,march,4,5,weekend,US/Pacific
109,WECCbus154,342.8955,-62.03,1007.0,155.8,march,5,5,weekend,US/Pacific
110,WECCbus154,342.861,-62.27,1015.0,155.5,march,6,5,weekend,US/Pacific
111,WECCbus154,342.7575,-62.78,1032.0,154.9,march,7,5,weekend,US/Pacific
112,WECCbus154,342.6885,-63.18,1045.0,154.4,march,8,5,weekend,US/Pacific
113,WECCbus154,342.2745,-65.21,1111.0,151.9,march,9,5,weekend,US/Pacific
114,WECCbus154,341.619,-68.39,1212.0,148.0,march,10,5,weekend,US/Pacific
115,WECCbus154,341.55,-68.66,1220.0,147.6,march,11,5,weekend,US/Pacific
116,WECCbus154,341.7915,-67.65,1189.0,148.9,march,12,5,weekend,US/Pacific
117,WECCbus154,342.171,-65.79,1130.0,151.1,march,13,5,weekend,US/Pacific
118,WECCbus154,342.654,-63.24,1047.0,154.3,march,14,5,weekend,US/Pacific
119,WECCbus154,342.9645,-61.59,992.5,156.4,march,15,5,weekend,US/Pacific
120,WECCbus154,343.1715,-60.52,956.6,157.7,march,16,5,weekend,US/Pacific
121,WECCbus154,343.344,-59.61,925.5,158.9,march,17,5,weekend,US/Pacific
122,WECCbus154,343.413,-59.17,910.7,159.5,march,18,5,weekend,US/Pacific
123,WECCbus154,343.3785,-59.34,916.3,159.2,march,19,5,weekend,US/Pacific
124,WECCbus154,343.3095,-59.71,929.0,158.8,march,20,5,weekend,US/Pacific
125,WECCbus154,342.93,-61.81,999.8,156.1,march,21,5,weekend,US/Pacific
126,WECCbus154,342.24,-65.45,1119.0,151.6,march,22,5,weekend,US/Pacific
127,WECCbus154,341.9985,-66.59,1155.0,150.2,march,23,5,weekend,US/Pacific
128,WECCbus154,342.2745,-65.28,1113.0,151.8,march,0,6,weekday,US/Pacific
129,WECCbus154,342.37800000000004,-64.75,1096.0,152.4,march,1,6,weekday,US/Pacific
130,WECCbus154,342.585,-63.71,1063.0,153.7,march,2,6,weekday,US/Pacific
131,WECCbus154,342.792,-62.51,1023.0,155.2,march,3,6,weekday,US/Pacific
132,WECCbus154,342.93,-61.9,1003.0,156.0,march,4,6,weekday,US/Pacific
133,WECCbus154,342.8955,-62.03,1007.0,155.8,march,5,6,weekday,US/Pacific
134,WECCbus154,342.861,-62.27,1015.0,155.5,march,6,6,weekday,US/Pacific
135,WECCbus154,342.7575,-62.78,1032.0,154.9,march,7,6,weekday,US/Pacific
136,WECCbus154,342.6885,-63.18,1045.0,154.4,march,8,6,weekday,US/Pacific
137,WECCbus154,342.2745,-65.21,1111.0,151.9,march,9,6,weekday,US/Pacific
138,WECCbus154,341.619,-68.39,1212.0,148.0,march,10,6,weekday,US/Pacific
139,WECCbus154,341.55,-68.66,1220.0,147.6,march,11,6,weekday,US/Pacific
140,WECCbus154,341.7915,-67.65,1189.0,148.9,march,12,6,weekday,US/Pacific
141,WECCbus154,342.171,-65.79,1130.0,151.1,march,13,6,weekday,US/Pacific
142,WECCbus154,342.654,-63.24,1047.0,154.3,march,14,6,weekday,US/Pacific
143,WECCbus154,342.9645,-61.59,992.5,156.4,march,15,6,weekday,US/Pacific
144,WECCbus154,343.1715,-60.52,956.6,157.7,march,16,6,weekday,US/Pacific
145,WECCbus154,343.344,-59.61,925.5,158.9,march,17,6,weekday,US/Pacific
146,WECCbus154,343.413,-59.17,910.7,159.5,march,18,6,weekday,US/Pacific
147,WECCbus154,343.3785,-59.34,916.3,159.2,march,19,6,weekday,US/Pacific
148,WECCbus154,343.3095,-59.71,929.0,158.8,march,20,6,weekday,US/Pacific
149,WECCbus154,342.93,-61.81,999.8,156.1,march,21,6,weekday,US/Pacific
150,WECCbus154,342.24,-65.45,1119.0,151.6,march,22,6,weekday,US/Pacific
151,WECCbus154,341.9985,-66.59,1155.0,150.2,march,23,6,weekday,US/Pacific
152,WECCbus154,342.2745,-65.28,1113.0,151.8,march,0,7,weekday,US/Pacific
153,WECCbus154,342.37800000000004,-64.75,1096.0,152.4,march,1,7,weekday,US/Pacific
154,WECCbus154,342.585,-63.71,1063.0,153.7,march,2,7,weekday,US/Pacific
155,WECCbus154,342.792,-62.51,1023.0,155.2,march,3,7,weekday,US/Pacific
156,WECCbus154,342.93,-61.9,1003.0,156.0,march,4,7,weekday,US/Pacific
157,WECCbus154,342.8955,-62.03,1007.0,155.8,march,5,7,weekday,US/Pacific
158,WECCbus154,342.861,-62.27,1015.0,155.5,march,6,7,weekday,US/Pacific
159,WECCbus154,342.7575,-62.78,1032.0,154.9,march,7,7,weekday,US/Pacific
160,WECCbus154,342.6885,-63.18,1045.0,154.4,march,8,7,weekday,US/Pacific
161,WECCbus154,342.2745,-65.21,1111.0,151.9,march,9,7,weekday,US/Pacific
162,WECCbus154,341.619,-68.39,1212.0,148.0,march,10,7,weekday,US/Pacific
163,WECCbus154,341.55,-68.66,1220.0,147.6,march,11,7,weekday,US/Pacific
164,WECCbus154,341.7915,-67.65,1189.0,148.9,march,12,7,weekday,US/Pacific
165,WECCbus154,342.171,-65.79,1130.0,151.1,march,13,7,weekday,US/Pacific
166,WECCbus154,342.654,-63.24,1047.0,154.3,march,14,7,weekday,US/Pacific
167,WECCbus154,342.9645,-61.59,992.5,156.4,march,15,7,weekday,US/Pacific
168,WECCbus154,343.1715,-60.52,956.6,157.7,march,16,7,weekday,US/Pacific
169,WECCbus154,343.344,-59.61,925.5,158.9,march,17,7,weekday,US/Pacific
170,WECCbus154,343.413,-59.17,910.7,159.5,march,18,7,weekday,US/Pacific
171,WECCbus154,343.3785,-59.34,916.3,159.2,march,19,7,weekday,US/Pacific
172,WECCbus154,343.3095,-59.71,929.0,158.8,march,20,7,weekday,US/Pacific
173,WECCbus154,342.93,-61.81,999.8,156.1,march,21,7,weekday,US/Pacific
174,WECCbus154,342.24,-65.45,1119.0,151.6,march,22,7,weekday,US/Pacific
175,WECCbus154,341.9985,-66.59,1155.0,150.2,march,23,7,weekday,US/Pacific
176,WECCbus154,342.2745,-65.28,1113.0,151.8,march,0,8,weekday,US/Pacific
177,WECCbus154,342.37800000000004,-64.75,1096.0,152.4,march,1,8,weekday,US/Pacific
178,WECCbus154,342.585,-63.71,1063.0,153.7,march,2,8,weekday,US/Pacific
179,WECCbus154,342.792,-62.51,1023.0,155.2,march,3,8,weekday,US/Pacific
180,WECCbus154,342.93,-61.9,1003.0,156.0,march,4,8,weekday,US/Pacific
181,WECCbus154,342.8955,-62.03,1007.0,155.8,march,5,8,weekday,US/Pacific
182,WECCbus154,342.861,-62.27,1015.0,155.5,march,6,8,weekday,US/Pacific
183,WECCbus154,342.7575,-62.78,1032.0,154.9,march,7,8,weekday,US/Pacific
184,WECCbus154,342.6885,-63.18,1045.0,154.4,march,8,8,weekday,US/Pacific
185,WECCbus154,342.2745,-65.21,1111.0,151.9,march,9,8,weekday,US/Pacific
186,WECCbus154,341.619,-68.39,1212.0,148.0,march,10,8,weekday,US/Pacific
187,WECCbus154,341.55,-68.66,1220.0,147.6,march,11,8,weekday,US/Pacific
188,WECCbus154,341.7915,-67.65,1189.0,148.9,march,12,8,weekday,US/Pacific
189,WECCbus154,342.171,-65.79,1130.0,151.1,march,13,8,weekday,US/Pacific
190,WECCbus154,342.654,-63.24,1047.0,154.3,march,14,8,weekday,US/Pacific
191,WECCbus154,342.9645,-61.59,992.5,156.4,march,15,8,weekday,US/Pacific
192,WECCbus154,343.1715,-60.52,956.6,157.7,march,16,8,weekday,US/Pacific
193,WECCbus154,343.344,-59.61,925.5,158.9,march,17,8,weekday,US/Pacific
194,WECCbus154,343.413,-59.17,910.7,159.5,march,18,8,weekday,US/Pacific
195,WECCbus154,343.3785,-59.34,916.3,159.2,march,19,8,weekday,US/Pacific
196,WECCbus154,343.3095,-59.71,929.0,158.8,march,20,8,weekday,US/Pacific
197,WECCbus154,342.93,-61.81,999.8,156.1,march,21,8,weekday,US/Pacific
198,WECCbus154,342.24,-65.45,1119.0,151.6,march,22,8,weekday,US/Pacific
199,WECCbus154,341.9985,-66.59,1155.0,150.2,march,23,8,weekday,US/Pacific
200,WECCbus154,342.2745,-65.28,1113.0,151.8,march,0,9,weekday,US/Pacific
201,WECCbus154,342.37800000000004,-64.75,1096.0,152.4,march,1,9,weekday,US/Pacific
202,WECCbus154,342.585,-63.71,1063.0,153.7,march,2,9,weekday,US/Pacific
203,WECCbus154,342.792,-62.51,1023.0,155.2,march,3,9,weekday,US/Pacific
204,WECCbus154,342.93,-61.9,1003.0,156.0,march,4,9,weekday,US/Pacific
205,WECCbus154,342.8955,-62.03,1007.0,155.8,march,5,9,weekday,US/Pacific
206,WECCbus154,342.861,-62.27,1015.0,155.5,march,6,9,weekday,US/Pacific
207,WECCbus154,342.7575,-62.78,1032.0,154.9,march,7,9,weekday,US/Pacific
208,WECCbus154,342.6885,-63.18,1045.0,154.4,march,8,9,weekday,US/Pacific
209,WECCbus154,342.2745,-65.21,1111.0,151.9,march,9,9,weekday,US/Pacific
210,WECCbus154,341.619,-68.39,1212.0,148.0,march,10,9,weekday,US/Pacific
211,WECCbus154,341.55,-68.66,1220.0,147.6,march,11,9,weekday,US/Pacific
212,WECCbus154,341.7915,-67.65,1189.0,148.9,march,12,9,weekday,US/Pacific
213,WECCbus154,342.171,-65.79,1130.0,151.1,march,13,9,weekday,US/Pacific
214,WECCbus154,342.654,-63.24,1047.0,154.3,march,14,9,weekday,US/Pacific
215,WECCbus154,342.9645,-61.59,992.5,156.4,march,15,9,weekday,US/Pacific
216,WECCbus154,343.1715,-60.52,956.6,157.7,march,16,9,weekday,US/Pacific
217,WECCbus154,343.344,-59.61,925.5,158.9,march,17,9,weekday,US/Pacific
218,WECCbus154,343.413,-59.17,910.7,159.5,march,18,9,weekday,US/Pacific
219,WECCbus154,343.3785,-59.34,916.3,159.2,march,19,9,weekday,US/Pacific
220,WECCbus154,343.3095,-59.71,929.0,158.8,march,20,9,weekday,US/Pacific
221,WECCbus154,342.93,-61.81,999.8,156.1,march,21,9,weekday,US/Pacific
222,WECCbus154,342.24,-65.45,1119.0,151.6,march,22,9,weekday,US/Pacific
223,WECCbus154,341.9985,-66.59,1155.0,150.2,march,23,9,weekday,US/Pacific
224,WECCbus154,342.2745,-65.28,1113.0,151.8,march,0,10,weekday,US/Pacific
225,WECCbus154,342.37800000000004,-64.75,1096.0,152.4,march,1,10,weekday,US/Pacific
226,WECCbus154,342.585,-63.71,1063.0,153.7,march,2,10,weekday,US/Pacific
227,WECCbus154,342.792,-62.51,1023.0,155.2,march,3,10,weekday,US/Pacific
228,WECCbus154,342.93,-61.9,1003.0,156.0,march,4,10,weekday,US/Pacific
229,WECCbus154,342.8955,-62.03,1007.0,155.8,march,5,10,weekday,US/Pacific
230,WECCbus154,342.861,-62.27,1015.0,155.5,march,6,10,weekday,US/Pacific
231,WECCbus154,342.7575,-62.78,1032.0,154.9,march,7,10,weekday,US/Pacific
232,WECCbus154,342.6885,-63.18,1045.0,154.4,march,8,10,weekday,US/Pacific
233,WECCbus154,342.2745,-65.21,1111.0,151.9,march,9,10,weekday,US/Pacific
234,WECCbus154,341.619,-68.39,1212.0,148.0,march,10,10,weekday,US/Pacific
235,WECCbus154,341.55,-68.66,1220.0,147.6,march,11,10,weekday,US/Pacific
236,WECCbus154,341.7915,-67.65,1189.0,148.9,march,12,10,weekday,US/Pacific
237,WECCbus154,342.171,-65.79,1130.0,151.1,march,13,10,weekday,US/Pacific
238,WECCbus154,342.654,-63.24,1047.0,154.3,march,14,10,weekday,US/Pacific
239,WECCbus154,342.9645,-61.59,992.5,156.4,march,15,10,weekday,US/Pacific
240,WECCbus154,343.1715,-60.52,956.6,157.7,march,16,10,weekday,US/Pacific
241,WECCbus154,343.344,-59.61,925.5,158.9,march,17,10,weekday,US/Pacific
242,WECCbus154,343.413,-59.17,910.7,159.5,march,18,10,weekday,US/Pacific
243,WECCbus154,343.3785,-59.34,916.3,159.2,march,19,10,weekday,US/Pacific
244,WECCbus154,343.3095,-59.71,929.0,158.8,march,20,10,weekday,US/Pacific
245,WECCbus154,342.93,-61.81,999.8,156.1,march,21,10,weekday,US/Pacific
246,WECCbus154,342.24,-65.45,1119.0,151.6,march,22,10,weekday,US/Pacific
247,WECCbus154,341.9985,-66.59,1155.0,150.2,march,23,10,weekday,US/Pacific
248,WECCbus154,342.2745,-65.28,1113.0,151.8,march,0,11,weekend,US/Pacific
249,WECCbus154,342.37800000000004,-64.75,1096.0,152.4,march,1,11,weekend,US/Pacific
250,WECCbus154,342.585,-63.71,1063.0,153.7,march,2,11,weekend,US/Pacific
251,WECCbus154,342.792,-62.51,1023.0,155.2,march,3,11,weekend,US/Pacific
252,WECCbus154,342.93,-61.9,1003.0,156.0,march,4,11,weekend,US/Pacific
253,WECCbus154,342.8955,-62.03,1007.0,155.8,march,5,11,weekend,US/Pacific
254,WECCbus154,342.861,-62.27,1015.0,155.5,march,6,11,weekend,US/Pacific
255,WECCbus154,342.7575,-62.78,1032.0,154.9,march,7,11,weekend,US/Pacific
256,WECCbus154,342.6885,-63.18,1045.0,154.4,march,8,11,weekend,US/Pacific
257,WECCbus154,342.2745,-65.21,1111.0,151.9,march,9,11,weekend,US/Pacific
258,WECCbus154,341.619,-68.39,1212.0,148.0,march,10,11,weekend,US/Pacific
259,WECCbus154,341.55,-68.66,1220.0,147.6,march,11,11,weekend,US/Pacific
260,WECCbus154,341.7915,-67.65,1189.0,148.9,march,12,11,weekend,US/Pacific
261,WECCbus154,342.171,-65.79,1130.0,151.1,march,13,11,weekend,US/Pacific
262,WECCbus154,342.654,-63.24,1047.0,154.3,march,14,11,weekend,US/Pacific
263,WECCbus154,342.9645,-61.59,992.5,156.4,march,15,11,weekend,US/Pacific
264,WECCbus154,343.1715,-60.52,956.6,157.7,march,16,11,weekend,US/Pacific
265,WECCbus154,343.344,-59.61,925.5,158.9,march,17,11,weekend,US/Pacific
266,WECCbus154,343.413,-59.17,910.7,159.5,march,18,11,weekend,US/Pacific
267,WECCbus154,343.3785,-59.34,916.3,159.2,march,19,11,weekend,US/Pacific
268,WECCbus154,343.3095,-59.71,929.0,158.8,march,20,11,weekend,US/Pacific
269,WECCbus154,342.93,-61.81,999.8,156.1,march,21,11,weekend,US/Pacific
270,WECCbus154,342.24,-65.45,1119.0,151.6,march,22,11,weekend,US/Pacific
271,WECCbus154,341.9985,-66.59,1155.0,150.2,march,23,11,weekend,US/Pacific
272,WECCbus154,342.2745,-65.28,1113.0,151.8,march,0,12,weekend,US/Pacific
273,WECCbus154,342.37800000000004,-64.75,1096.0,152.4,march,1,12,weekend,US/Pacific
274,WECCbus154,342.585,-63.71,1063.0,153.7,march,3,12,weekend,US/Pacific
275,WECCbus154,342.792,-62.51,1023.0,155.2,march,4,12,weekend,US/Pacific
276,WECCbus154,342.93,-61.9,1003.0,156.0,march,5,12,weekend,US/Pacific
277,WECCbus154,342.8955,-62.03,1007.0,155.8,march,6,12,weekend,US/Pacific
278,WECCbus154,342.861,-62.27,1015.0,155.5,march,7,12,weekend,US/Pacific
279,WECCbus154,342.7575,-62.78,1032.0,154.9,march,8,12,weekend,US/Pacific
280,WECCbus154,342.6885,-63.18,1045.0,154.4,march,9,12,weekend,US/Pacific
281,WECCbus154,342.2745,-65.21,1111.0,151.9,march,10,12,weekend,US/Pacific
282,WECCbus154,341.619,-68.39,1212.0,148.0,march,11,12,weekend,US/Pacific
283,WECCbus154,341.55,-68.66,1220.0,147.6,march,12,12,weekend,US/Pacific
284,WECCbus154,341.7915,-67.65,1189.0,148.9,march,13,12,weekend,US/Pacific
285,WECCbus154,342.171,-65.79,1130.0,151.1,march,14,12,weekend,US/Pacific
286,WECCbus154,342.654,-63.24,1047.0,154.3,march,15,12,weekend,US/Pacific
287,WECCbus154,342.9645,-61.59,992.5,156.4,march,16,12,weekend,US/Pacific
288,WECCbus154,343.1715,-60.52,956.6,157.7,march,17,12,weekend,US/Pacific
289,WECCbus154,343.344,-59.61,925.5,158.9,march,18,12,weekend,US/Pacific
290,WECCbus154,343.413,-59.17,910.7,159.5,march,19,12,weekend,US/Pacific
291,WECCbus154,343.3785,-59.34,916.3,159.2,march,20,12,weekend,US/Pacific
292,WECCbus154,343.3095,-59.71,929.0,158.8,march,21,12,weekend,US/Pacific
293,WECCbus154,342.93,-61.81,999.8,156.1,march,22,12,weekend,US/Pacific
294,WECCbus154,342.24,-65.45,1119.0,151.6,march,23,12,weekend,US/Pacific
295,WECCbus154,341.9985,-66.59,1155.0,150.2,march,0,13,weekday,US/Pacific
296,WECCbus154,342.2745,-65.28,1113.0,151.8,march,1,13,weekday,US/Pacific
297,WECCbus154,342.37800000000004,-64.75,1096.0,152.4,march,2,13,weekday,US/Pacific
298,WECCbus154,342.585,-63.71,1063.0,153.7,march,3,13,weekday,US/Pacific
299,WECCbus154,342.792,-62.51,1023.0,155.2,march,4,13,weekday,US/Pacific
300,WECCbus154,342.93,-61.9,1003.0,156.0,march,5,13,weekday,US/Pacific
301,WECCbus154,342.8955,-62.03,1007.0,155.8,march,6,13,weekday,US/Pacific
302,WECCbus154,342.861,-62.27,1015.0,155.5,march,7,13,weekday,US/Pacific
303,WECCbus154,342.7575,-62.78,1032.0,154.9,march,8,13,weekday,US/Pacific
304,WECCbus154,342.6885,-63.18,1045.0,154.4,march,9,13,weekday,US/Pacific
305,WECCbus154,342.2745,-65.21,1111.0,151.9,march,10,13,weekday,US/Pacific
306,WECCbus154,341.619,-68.39,1212.0,148.0,march,11,13,weekday,US/Pacific
307,WECCbus154,341.55,-68.66,1220.0,147.6,march,12,13,weekday,US/Pacific
308,WECCbus154,341.7915,-67.65,1189.0,148.9,march,13,13,weekday,US/Pacific
309,WECCbus154,342.171,-65.79,1130.0,151.1,march,14,13,weekday,US/Pacific
310,WECCbus154,342.654,-63.24,1047.0,154.3,march,15,13,weekday,US/Pacific
311,WECCbus154,342.9645,-61.59,992.5,156.4,march,16,13,weekday,US/Pacific
312,WECCbus154,343.1715,-60.52,956.6,157.7,march,17,13,weekday,US/Pacific
313,WECCbus154,343.344,-59.61,925.5,158.9,march,18,13,weekday,US/Pacific
314,WECCbus154,343.413,-59.17,910.7,159.5,march,19,13,weekday,US/Pacific
315,WECCbus154,343.3785,-59.34,916.3,159.2,march,20,13,weekday,US/Pacific
316,WECCbus154,343.3095,-59.71,929.0,158.8,march,21,13,weekday,US/Pacific
317,WECCbus154,342.93,-61.81,999.8,156.1,march,22,13,weekday,US/Pacific
318,WECCbus154,342.24,-65.45,1119.0,151.6,march,23,13,weekday,US/Pacific
319,WECCbus154,341.9985,-66.59,1155.0,150.2,march,0,14,weekday,US/Pacific
320,WECCbus154,342.2745,-65.28,1113.0,151.8,march,1,14,weekday,US/Pacific
321,WECCbus154,342.37800000000004,-64.75,1096.0,152.4,march,2,14,weekday,US/Pacific
322,WECCbus154,342.585,-63.71,1063.0,153.7,march,3,14,weekday,US/Pacific
323,WECCbus154,342.792,-62.51,1023.0,155.2,march,4,14,weekday,US/Pacific
324,WECCbus154,342.93,-61.9,1003.0,156.0,march,5,14,weekday,US/Pacific
325,WECCbus154,342.8955,-62.03,1007.0,155.8,march,6,14,weekday,US/Pacific
326,WECCbus154,342.861,-62.27,1015.0,155.5,march,7,14,weekday,US/Pacific
327,WECCbus154,342.7575,-62.78,1032.0,154.9,march,8,14,weekday,US/Pacific
328,WECCbus154,342.6885,-63.18,1045.0,154.4,march,9,14,weekday,US/Pacific
329,WECCbus154,342.2745,-65.21,1111.0,151.9,march,10,14,weekday,US/Pacific
330,WECCbus154,341.619,-68.39,1212.0,148.0,march,11,14,weekday,US/Pacific
331,WECCbus154,341.55,-68.66,1220.0,147.6,march,12,14,weekday,US/Pacific
332,WECCbus154,341.7915,-67.65,1189.0,148.9,march,13,14,weekday,US/Pacific
333,WECCbus154,342.171,-65.79,1130.0,151.1,march,14,14,weekday,US/Pacific
334,WECCbus154,342.654,-63.24,1047.0,154.3,march,15,14,weekday,US/Pacific
335,WECCbus154,342.9645,-61.59,992.5,156.4,march,16,14,weekday,US/Pacific
336,WECCbus154,343.1715,-60.52,956.6,157.7,march,17,14,weekday,US/Pacific
337,WECCbus154,343.344,-59.61,925.5,158.9,march,18,14,weekday,US/Pacific
338,WECCbus154,343.413,-59.17,910.7,159.5,march,19,14,weekday,US/Pacific
339,WECCbus154,343.3785,-59.34,916.3,159.2,march,20,14,weekday,US/Pacific
340,WECCbus154,343.3095,-59.71,929.0,158.8,march,21,14,weekday,US/Pacific
341,WECCbus154,342.93,-61.81,999.8,156.1,march,22,14,weekday,US/Pacific
342,WECCbus154,342.24,-65.45,1119.0,151.6,march,23,14,weekday,US/Pacific
343,WECCbus154,341.9985,-66.59,1155.0,150.2,march,0,15,weekday,US/Pacific
344,WECCbus154,342.2745,-65.28,1113.0,151.8,march,1,15,weekday,US/Pacific
345,WECCbus154,342.37800000000004,-64.75,1096.0,152.4,march,2,15,weekday,US/Pacific
346,WECCbus154,342.585,-63.71,1063.0,153.7,march,3,15,weekday,US/Pacific
347,WECCbus154,342.792,-62.51,1023.0,155.2,march,4,15,weekday,US/Pacific
348,WECCbus154,342.93,-61.9,1003.0,156.0,march,5,15,weekday,US/Pacific
349,WECCbus154,342.8955,-62.03,1007.0,155.8,march,6,15,weekday,US/Pacific
350,WECCbus154,342.861,-62.27,1015.0,155.5,march,7,15,weekday,US/Pacific
351,WECCbus154,342.7575,-62.78,1032.0,154.9,march,8,15,weekday,US/Pacific
352,WECCbus154,342.6885,-63.18,1045.0,154.4,march,9,15,weekday,US/Pacific
353,WECCbus154,342.2745,-65.21,1111.0,151.9,march,10,15,weekday,US/Pacific
354,WECCbus154,341.619,-68.39,1212.0,148.0,march,11,15,weekday,US/Pacific
355,WECCbus154,341.55,-68.66,1220.0,147.6,march,12,15,weekday,US/Pacific
356,WECCbus154,341.7915,-67.65,1189.0,148.9,march,13,15,weekday,US/Pacific
357,WECCbus154,342.171,-65.79,1130.0,151.1,march,14,15,weekday,US/Pacific
358,WECCbus154,342.654,-63.24,1047.0,154.3,march,15,15,weekday,US/Pacific
359,WECCbus154,342.9645,-61.59,992.5,156.4,march,16,15,weekday,US/Pacific
360,WECCbus154,343.1715,-60.52,956.6,157.7,march,17,15,weekday,US/Pacific
361,WECCbus154,343.344,-59.61,925.5,158.9,march,18,15,weekday,US/Pacific
362,WECCbus154,343.413,-59.17,910.7,159.5,march,19,15,weekday,US/Pacific
363,WECCbus154,343.3785,-59.34,916.3,159.2,march,20,15,weekday,US/Pacific
364,WECCbus154,343.3095,-59.71,929.0,158.8,march,21,15,weekday,US/Pacific
365,WECCbus154,342.93,-61.81,999.8,156.1,march,22,15,weekday,US/Pacific
366,WECCbus154,342.24,-65.45,1119.0,151.6,march,23,15,weekday,US/Pacific
367,WECCbus154,341.9985,-66.59,1155.0,150.2,march,0,16,weekday,US/Pacific
368,WECCbus154,342.2745,-65.28,1113.0,151.8,march,1,16,weekday,US/Pacific
369,WECCbus154,342.37800000000004,-64.75,1096.0,152.4,march,2,16,weekday,US/Pacific
370,WECCbus154,342.585,-63.71,1063.0,153.7,march,3,16,weekday,US/Pacific
371,WECCbus154,342.792,-62.51,1023.0,155.2,march,4,16,weekday,US/Pacific
372,WECCbus154,342.93,-61.9,1003.0,156.0,march,5,16,weekday,US/Pacific
373,WECCbus154,342.8955,-62.03,1007.0,155.8,march,6,16,weekday,US/Pacific
374,WECCbus154,342.861,-62.27,1015.0,155.5,march,7,16,weekday,US/Pacific
375,WECCbus154,342.7575,-62.78,1032.0,154.9,march,8,16,weekday,US/Pacific
376,WECCbus154,342.6885,-63.18,1045.0,154.4,march,9,16,weekday,US/Pacific
377,WECCbus154,342.2745,-65.21,1111.0,151.9,march,10,16,weekday,US/Pacific
378,WECCbus154,341.619,-68.39,1212.0,148.0,march,11,16,weekday,US/Pacific
379,WECCbus154,341.55,-68.66,1220.0,147.6,march,12,16,weekday,US/Pacific
380,WECCbus154,341.7915,-67.65,1189.0,148.9,march,13,16,weekday,US/Pacific
381,WECCbus154,342.171,-65.79,1130.0,151.1,march,14,16,weekday,US/Pacific
382,WECCbus154,342.654,-63.24,1047.0,154.3,march,15,16,weekday,US/Pacific
383,WECCbus154,342.9645,-61.59,992.5,156.4,march,16,16,weekday,US/Pacific
384,WECCbus154,343.1715,-60.52,956.6,157.7,march,17,16,weekday,US/Pacific
385,WECCbus154,343.344,-59.61,925.5,158.9,march,18,16,weekday,US/Pacific
386,WECCbus154,343.413,-59.17,910.7,159.5,march,19,16,weekday,US/Pacific
387,WECCbus154,343.3785,-59.34,916.3,159.2,march,20,16,weekday,US/Pacific
388,WECCbus154,343.3095,-59.71,929.0,158.8,march,21,16,weekday,US/Pacific
389,WECCbus154,342.93,-61.81,999.8,156.1,march,22,16,weekday,US/Pacific
390,WECCbus154,342.24,-65.45,1119.0,151.6,march,23,16,weekday,US/Pacific
391,WECCbus154,341.9985,-66.59,1155.0,150.2,march,0,17,weekday,US/Pacific
392,WECCbus154,342.2745,-65.28,1113.0,151.8,march,1,17,weekday,US/Pacific
393,WECCbus154,342.37800000000004,-64.75,1096.0,152.4,march,2,17,weekday,US/Pacific
394,WECCbus154,342.585,-63.71,1063.0,153.7,march,3,17,weekday,US/Pacific
395,WECCbus154,342.792,-62.51,1023.0,155.2,march,4,17,weekday,US/Pacific
396,WECCbus154,342.93,-61.9,1003.0,156.0,march,5,17,weekday,US/Pacific
397,WECCbus154,342.8955,-62.03,1007.0,155.8,march,6,17,weekday,US/Pacific
398,WECCbus154,342.861,-62.27,1015.0,155.5,march,7,17,weekday,US/Pacific
399,WECCbus154,342.7575,-62.78,1032.0,154.9,march,8,17,weekday,US/Pacific
400,WECCbus154,342.6885,-63.18,1045.0,154.4,march,9,17,weekday,US/Pacific
401,WECCbus154,342.2745,-65.21,1111.0,151.9,march,10,17,weekday,US/Pacific
402,WECCbus154,341.619,-68.39,1212.0,148.0,march,11,17,weekday,US/Pacific
403,WECCbus154,341.55,-68.66,1220.0,147.6,march,12,17,weekday,US/Pacific
404,WECCbus154,341.7915,-67.65,1189.0,148.9,march,13,17,weekday,US/Pacific
405,WECCbus154,342.171,-65.79,1130.0,151.1,march,14,17,weekday,US/Pacific
406,WECCbus154,342.654,-63.24,1047.0,154.3,march,15,17,weekday,US/Pacific
407,WECCbus154,342.9645,-61.59,992.5,156.4,march,16,17,weekday,US/Pacific
408,WECCbus154,343.1715,-60.52,956.6,157.7,march,17,17,weekday,US/Pacific
409,WECCbus154,343.344,-59.61,925.5,158.9,march,18,17,weekday,US/Pacific
410,WECCbus154,343.413,-59.17,910.7,159.5,march,19,17,weekday,US/Pacific
411,WECCbus154,343.3785,-59.34,916.3,159.2,march,20,17,weekday,US/Pacific
412,WECCbus154,343.3095,-59.71,929.0,158.8,march,21,17,weekday,US/Pacific
413,WECCbus154,342.93,-61.81,999.8,156.1,march,22,17,weekday,US/Pacific
414,WECCbus154,342.24,-65.45,1119.0,151.6,march,23,17,weekday,US/Pacific
415,WECCbus154,341.9985,-66.59,1155.0,150.2,march,0,18,weekend,US/Pacific
416,WECCbus154,342.2745,-65.28,1113.0,151.8,march,1,18,weekend,US/Pacific
417,WECCbus154,342.37800000000004,-64.75,1096.0,152.4,march,2,18,weekend,US/Pacific
418,WECCbus154,342.585,-63.71,1063.0,153.7,march,3,18,weekend,US/Pacific
419,WECCbus154,342.792,-62.51,1023.0,155.2,march,4,18,weekend,US/Pacific
420,WECCbus154,342.93,-61.9,1003.0,156.0,march,5,18,weekend,US/Pacific
421,WECCbus154,342.8955,-62.03,1007.0,155.8,march,6,18,weekend,US/Pacific
422,WECCbus154,342.861,-62.27,1015.0,155.5,march,7,18,weekend,US/Pacific
423,WECCbus154,342.7575,-62.78,1032.0,154.9,march,8,18,weekend,US/Pacific
424,WECCbus154,342.6885,-63.18,1045.0,154.4,march,9,18,weekend,US/Pacific
425,WECCbus154,342.2745,-65.21,1111.0,151.9,march,10,18,weekend,US/Pacific
426,WECCbus154,341.619,-68.39,1212.0,148.0,march,11,18,weekend,US/Pacific
427,WECCbus154,341.55,-68.66,1220.0,147.6,march,12,18,weekend,US/Pacific
428,WECCbus154,341.7915,-67.65,1189.0,148.9,march,13,18,weekend,US/Pacific
429,WECCbus154,342.171,-65.79,1130.0,151.1,march,14,18,weekend,US/Pacific
430,WECCbus154,342.654,-63.24,1047.0,154.3,march,15,18,weekend,US/Pacific
431,WECCbus154,342.9645,-61.59,992.5,156.4,march,16,18,weekend,US/Pacific
432,WECCbus154,343.1715,-60.52,956.6,157.7,march,17,18,weekend,US/Pacific
433,WECCbus154,343.344,-59.61,925.5,158.9,march,18,18,weekend,US/Pacific
434,WECCbus154,343.413,-59.17,910.7,159.5,march,19,18,weekend,US/Pacific
435,WECCbus154,343.3785,-59.34,916.3,159.2,march,20,18,weekend,US/Pacific
436,WECCbus154,343.3095,-59.71,929.0,158.8,march,21,18,weekend,US/Pacific
437,WECCbus154,342.93,-61.81,999.8,156.1,march,22,18,weekend,US/Pacific
438,WECCbus154,342.24,-65.45,1119.0,151.6,march,23,18,weekend,US/Pacific
439,WECCbus154,341.9985,-66.59,1155.0,150.2,march,0,19,weekend,US/Pacific
440,WECCbus154,342.2745,-65.28,1113.0,151.8,march,1,19,weekend,US/Pacific
441,WECCbus154,342.37800000000004,-64.75,1096.0,152.4,march,2,19,weekend,US/Pacific
442,WECCbus154,342.585,-63.71,1063.0,153.7,march,3,19,weekend,US/Pacific
443,WECCbus154,342.792,-62.51,1023.0,155.2,march,4,19,weekend,US/Pacific
444,WECCbus154,342.93,-61.9,1003.0,156.0,march,5,19,weekend,US/Pacific
445,WECCbus154,342.8955,-62.03,1007.0,155.8,march,6,19,weekend,US/Pacific
446,WECCbus154,342.861,-62.27,1015.0,155.5,march,7,19,weekend,US/Pacific
447,WECCbus154,342.7575,-62.78,1032.0,154.9,march,8,19,weekend,US/Pacific
448,WECCbus154,342.6885,-63.18,1045.0,154.4,march,9,19,weekend,US/Pacific
449,WECCbus154,342.2745,-65.21,1111.0,151.9,march,10,19,weekend,US/Pacific
450,WECCbus154,341.619,-68.39,1212.0,148.0,march,11,19,weekend,US/Pacific
451,WECCbus154,341.55,-68.66,1220.0,147.6,march,12,19,weekend,US/Pacific
452,WECCbus154,341.7915,-67.65,1189.0,148.9,march,13,19,weekend,US/Pacific
453,WECCbus154,342.171,-65.79,1130.0,151.1,march,14,19,weekend,US/Pacific
454,WECCbus154,342.654,-63.24,1047.0,154.3,march,15,19,weekend,US/Pacific
455,WECCbus154,342.9645,-61.59,992.5,156.4,march,16,19,weekend,US/Pacific
456,WECCbus154,343.1715,-60.52,956.6,157.7,march,17,19,weekend,US/Pacific
457,WECCbus154,343.344,-59.61,925.5,158.9,march,18,19,weekend,US/Pacific
458,WECCbus154,343.413,-59.17,910.7,159.5,march,19,19,weekend,US/Pacific
459,WECCbus154,343.3785,-59.34,916.3,159.2,march,20,19,weekend,US/Pacific
460,WECCbus154,343.3095,-59.71,929.0,158.8,march,21,19,weekend,US/Pacific
461,WECCbus154,342.93,-61.81,999.8,156.1,march,22,19,weekend,US/Pacific
462,WECCbus154,342.24,-65.45,1119.0,151.6,march,23,19,weekend,US/Pacific
463,WECCbus154,341.9985,-66.59,1155.0,150.2,march,0,20,weekday,US/Pacific
464,WECCbus154,342.2745,-65.28,1113.0,151.8,march,1,20,weekday,US/Pacific
465,WECCbus154,342.37800000000004,-64.75,1096.0,152.4,march,2,20,weekday,US/Pacific
466,WECCbus154,342.585,-63.71,1063.0,153.7,march,3,20,weekday,US/Pacific
467,WECCbus154,342.792,-62.51,1023.0,155.2,march,4,20,weekday,US/Pacific
468,WECCbus154,342.93,-61.9,1003.0,156.0,march,5,20,weekday,US/Pacific
469,WECCbus154,342.8955,-62.03,1007.0,155.8,march,6,20,weekday,US/Pacific
470,WECCbus154,342.861,-62.27,1015.0,155.5,march,7,20,weekday,US/Pacific
471,WECCbus154,342.7575,-62.78,1032.0,154.9,march,8,20,weekday,US/Pacific
472,WECCbus154,342.6885,-63.18,1045.0,154.4,march,9,20,weekday,US/Pacific
473,WECCbus154,342.2745,-65.21,1111.0,151.9,march,10,20,weekday,US/Pacific
474,WECCbus154,341.619,-68.39,1212.0,148.0,march,11,20,weekday,US/Pacific
475,WECCbus154,341.55,-68.66,1220.0,147.6,march,12,20,weekday,US/Pacific
476,WECCbus154,341.7915,-67.65,1189.0,148.9,march,13,20,weekday,US/Pacific
477,WECCbus154,342.171,-65.79,1130.0,151.1,march,14,20,weekday,US/Pacific
478,WECCbus154,342.654,-63.24,1047.0,154.3,march,15,20,weekday,US/Pacific
479,WECCbus154,342.9645,-61.59,992.5,156.4,march,16,20,weekday,US/Pacific
480,WECCbus154,343.1715,-60.52,956.6,157.7,march,17,20,weekday,US/Pacific
481,WECCbus154,343.344,-59.61,925.5,158.9,march,18,20,weekday,US/Pacific
482,WECCbus154,343.413,-59.17,910.7,159.5,march,19,20,weekday,US/Pacific
483,WECCbus154,343.3785,-59.34,916.3,159.2,march,20,20,weekday,US/Pacific
484,WECCbus154,343.3095,-59.71,929.0,158.8,march,21,20,weekday,US/Pacific
485,WECCbus154,342.93,-61.81,999.8,156.1,march,22,20,weekday,US/Pacific
486,WECCbus154,342.24,-65.45,1119.0,151.6,march,23,20,weekday,US/Pacific
487,WECCbus154,341.9985,-66.59,1155.0,150.2,march,0,21,weekday,US/Pacific
488,WECCbus154,342.2745,-65.28,1113.0,151.8,march,1,21,weekday,US/Pacific
489,WECCbus154,342.37800000000004,-64.75,1096.0,152.4,march,2,21,weekday,US/Pacific
490,WECCbus154,342.585,-63.71,1063.0,153.7,march,3,21,weekday,US/Pacific
491,WECCbus154,342.792,-62.51,1023.0,155.2,march,4,21,weekday,US/Pacific
492,WECCbus154,342.93,-61.9,1003.0,156.0,march,5,21,weekday,US/Pacific
493,WECCbus154,342.8955,-62.03,1007.0,155.8,march,6,21,weekday,US/Pacific
494,WECCbus154,342.861,-62.27,1015.0,155.5,march,7,21,weekday,US/Pacific
495,WECCbus154,342.7575,-62.78,1032.0,154.9,march,8,21,weekday,US/Pacific
496,WECCbus154,342.6885,-63.18,1045.0,154.4,march,9,21,weekday,US/Pacific
497,WECCbus154,342.2745,-65.21,1111.0,151.9,march,10,21,weekday,US/Pacific
498,WECCbus154,341.619,-68.39,1212.0,148.0,march,11,21,weekday,US/Pacific
499,WECCbus154,341.55,-68.66,1220.0,147.6,march,12,21,weekday,US/Pacific
500,WECCbus154,341.7915,-67.65,1189.0,148.9,march,13,21,weekday,US/Pacific
501,WECCbus154,342.171,-65.79,1130.0,151.1,march,14,21,weekday,US/Pacific
502,WECCbus154,342.654,-63.24,1047.0,154.3,march,15,21,weekday,US/Pacific
503,WECCbus154,342.9645,-61.59,992.5,156.4,march,16,21,weekday,US/Pacific
504,WECCbus154,343.1715,-60.52,956.6,157.7,march,17,21,weekday,US/Pacific
505,WECCbus154,343.344,-59.61,925.5,158.9,march,18,21,weekday,US/Pacific
506,WECCbus154,343.413,-59.17,910.7,159.5,march,19,21,weekday,US/Pacific
507,WECCbus154,343.3785,-59.34,916.3,159.2,march,20,21,weekday,US/Pacific
508,WECCbus154,343.3095,-59.71,929.0,158.8,march,21,21,weekday,US/Pacific
509,WECCbus154,342.93,-61.81,999.8,156.1,march,22,21,weekday,US/Pacific
510,WECCbus154,342.24,-65.45,1119.0,151.6,march,23,21,weekday,US/Pacific
511,WECCbus154,341.9985,-66.59,1155.0,150.2,march,0,22,weekday,US/Pacific
512,WECCbus154,342.2745,-65.28,1113.0,151.8,march,1,22,weekday,US/Pacific
513,WECCbus154,342.37800000000004,-64.75,1096.0,152.4,march,2,22,weekday,US/Pacific
514,WECCbus154,342.585,-63.71,1063.0,153.7,march,3,22,weekday,US/Pacific
515,WECCbus154,342.792,-62.51,1023.0,155.2,march,4,22,weekday,US/Pacific
516,WECCbus154,342.93,-61.9,1003.0,156.0,march,5,22,weekday,US/Pacific
517,WECCbus154,342.8955,-62.03,1007.0,155.8,march,6,22,weekday,US/Pacific
518,WECCbus154,342.861,-62.27,1015.0,155.5,march,7,22,weekday,US/Pacific
519,WECCbus154,342.7575,-62.78,1032.0,154.9,march,8,22,weekday,US/Pacific
520,WECCbus154,342.6885,-63.18,1045.0,154.4,march,9,22,weekday,US/Pacific
521,WECCbus154,342.2745,-65.21,1111.0,151.9,march,10,22,weekday,US/Pacific
522,WECCbus154,341.619,-68.39,1212.0,148.0,march,11,22,weekday,US/Pacific
523,WECCbus154,341.55,-68.66,1220.0,147.6,march,12,22,weekday,US/Pacific
524,WECCbus154,341.7915,-67.65,1189.0,148.9,march,13,22,weekday,US/Pacific
525,WECCbus154,342.171,-65.79,1130.0,151.1,march,14,22,weekday,US/Pacific
526,WECCbus154,342.654,-63.24,1047.0,154.3,march,15,22,weekday,US/Pacific
527,WECCbus154,342.9645,-61.59,992.5,156.4,march,16,22,weekday,US/Pacific
528,WECCbus154,343.1715,-60.52,956.6,157.7,march,17,22,weekday,US/Pacific
529,WECCbus154,343.344,-59.61,925.5,158.9,march,18,22,weekday,US/Pacific
530,WECCbus154,343.413,-59.17,910.7,159.5,march,19,22,weekday,US/Pacific
531,WECCbus154,343.3785,-59.34,916.3,159.2,march,20,22,weekday,US/Pacific
532,WECCbus154,343.3095,-59.71,929.0,158.8,march,21,22,weekday,US/Pacific
533,WECCbus154,342.93,-61.81,999.8,156.1,march,22,22,weekday,US/Pacific
534,WECCbus154,342.24,-65.45,1119.0,151.6,march,23,22,weekday,US/Pacific
535,WECCbus154,341.9985,-66.59,1155.0,150.2,march,0,23,weekday,US/Pacific
536,WECCbus154,342.2745,-65.28,1113.0,151.8,march,1,23,weekday,US/Pacific
537,WECCbus154,342.37800000000004,-64.75,1096.0,152.4,march,2,23,weekday,US/Pacific
538,WECCbus154,342.585,-63.71,1063.0,153.7,march,3,23,weekday,US/Pacific
539,WECCbus154,342.792,-62.51,1023.0,155.2,march,4,23,weekday,US/Pacific
540,WECCbus154,342.93,-61.9,1003.0,156.0,march,5,23,weekday,US/Pacific
541,WECCbus154,342.8955,-62.03,1007.0,155.8,march,6,23,weekday,US/Pacific
542,WECCbus154,342.861,-62.27,1015.0,155.5,march,7,23,weekday,US/Pacific
543,WECCbus154,342.7575,-62.78,1032.0,154.9,march,8,23,weekday,US/Pacific
544,WECCbus154,342.6885,-63.18,1045.0,154.4,march,9,23,weekday,US/Pacific
545,WECCbus154,342.2745,-65.21,1111.0,151.9,march,10,23,weekday,US/Pacific
546,WECCbus154,341.619,-68.39,1212.0,148.0,march,11,23,weekday,US/Pacific
547,WECCbus154,341.55,-68.66,1220.0,147.6,march,12,23,weekday,US/Pacific
548,WECCbus154,341.7915,-67.65,1189.0,148.9,march,13,23,weekday,US/Pacific
549,WECCbus154,342.171,-65.79,1130.0,151.1,march,14,23,weekday,US/Pacific
550,WECCbus154,342.654,-63.24,1047.0,154.3,march,15,23,weekday,US/Pacific
551,WECCbus154,342.9645,-61.59,992.5,156.4,march,16,23,weekday,US/Pacific
552,WECCbus154,343.1715,-60.52,956.6,157.7,march,17,23,weekday,US/Pacific
553,WECCbus154,343.344,-59.61,925.5,158.9,march,18,23,weekday,US/Pacific
554,WECCbus154,343.413,-59.17,910.7,159.5,march,19,23,weekday,US/Pacific
555,WECCbus154,343.3785,-59.34,916.3,159.2,march,20,23,weekday,US/Pacific
556,WECCbus154,343.3095,-59.71,929.0,158.8,march,21,23,weekday,US/Pacific
557,WECCbus154,342.93,-61.81,999.8,156.1,march,22,23,weekday,US/Pacific
558,WECCbus154,342.24,-65.45,1119.0,151.6,march,23,23,weekday,US/Pacific
559,WECCbus154,341.9985,-66.59,1155.0,150.2,march,0,24,weekday,US/Pacific
560,WECCbus154,342.2745,-65.28,1113.0,151.8,march,1,24,weekday,US/Pacific
561,WECCbus154,342.37800000000004,-64.75,1096.0,152.4,march,2,24,weekday,US/Pacific
562,WECCbus154,342.585,-63.71,1063.0,153.7,march,3,24,weekday,US/Pacific
563,WECCbus154,342.792,-62.51,1023.0,155.2,march,4,24,weekday,US/Pacific
564,WECCbus154,342.93,-61.9,1003.0,156.0,march,5,24,weekday,US/Pacific
565,WECCbus154,342.8955,-62.03,1007.0,155.8,march,6,24,weekday,US/Pacific
566,WECCbus154,342.861,-62.27,1015.0,155.5,march,7,24,weekday,US/Pacific
567,WECCbus154,342.7575,-62.78,1032.0,154.9,march,8,24,weekday,US/Pacific
568,WECCbus154,342.6885,-63.18,1045.0,154.4,march,9,24,weekday,US/Pacific
569,WECCbus154,342.2745,-65.21,1111.0,151.9,march,10,24,weekday,US/Pacific
570,WECCbus154,341.619,-68.39,1212.0,148.0,march,11,24,weekday,US/Pacific
571,WECCbus154,341.55,-68.66,1220.0,147.6,march,12,24,weekday,US/Pacific
572,WECCbus154,341.7915,-67.65,1189.0,148.9,march,13,24,weekday,US/Pacific
573,WECCbus154,342.171,-65.79,1130.0,151.1,march,14,24,weekday,US/Pacific
574,WECCbus154,342.654,-63.24,1047.0,154.3,march,15,24,weekday,US/Pacific
575,WECCbus154,342.9645,-61.59,992.5,156.4,march,16,24,weekday,US/Pacific
576,WECCbus154,343.1715,-60.52,956.6,157.7,march,17,24,weekday,US/Pacific
577,WECCbus154,343.344,-59.61,925.5,158.9,march,18,24,weekday,US/Pacific
578,WECCbus154,343.413,-59.17,910.7,159.5,march,19,24,weekday,US/Pacific
579,WECCbus154,343.3785,-59.34,916.3,159.2,march,20,24,weekday,US/Pacific
580,WECCbus154,343.3095,-59.71,929.0,158.8,march,21,24,weekday,US/Pacific
581,WECCbus154,342.93,-61.81,999.8,156.1,march,22,24,weekday,US/Pacific
582,WECCbus154,342.24,-65.45,1119.0,151.6,march,23,24,weekday,US/Pacific
583,WECCbus154,341.9985,-66.59,1155.0,150.2,march,0,25,weekend,US/Pacific
584,WECCbus154,342.2745,-65.28,1113.0,151.8,march,1,25,weekend,US/Pacific
585,WECCbus154,342.37800000000004,-64.75,1096.0,152.4,march,2,25,weekend,US/Pacific
586,WECCbus154,342.585,-63.71,1063.0,153.7,march,3,25,weekend,US/Pacific
587,WECCbus154,342.792,-62.51,1023.0,155.2,march,4,25,weekend,US/Pacific
588,WECCbus154,342.93,-61.9,1003.0,156.0,march,5,25,weekend,US/Pacific
589,WECCbus154,342.8955,-62.03,1007.0,155.8,march,6,25,weekend,US/Pacific
590,WECCbus154,342.861,-62.27,1015.0,155.5,march,7,25,weekend,US/Pacific
591,WECCbus154,342.7575,-62.78,1032.0,154.9,march,8,25,weekend,US/Pacific
592,WECCbus154,342.6885,-63.18,1045.0,154.4,march,9,25,weekend,US/Pacific
593,WECCbus154,342.2745,-65.21,1111.0,151.9,march,10,25,weekend,US/Pacific
594,WECCbus154,341.619,-68.39,1212.0,148.0,march,11,25,weekend,US/Pacific
595,WECCbus154,341.55,-68.66,1220.0,147.6,march,12,25,weekend,US/Pacific
596,WECCbus154,341.7915,-67.65,1189.0,148.9,march,13,25,weekend,US/Pacific
597,WECCbus154,342.171,-65.79,1130.0,151.1,march,14,25,weekend,US/Pacific
598,WECCbus154,342.654,-63.24,1047.0,154.3,march,15,25,weekend,US/Pacific
599,WECCbus154,342.9645,-61.59,992.5,156.4,march,16,25,weekend,US/Pacific
600,WECCbus154,343.1715,-60.52,956.6,157.7,march,17,25,weekend,US/Pacific
601,WECCbus154,343.344,-59.61,925.5,158.9,march,18,25,weekend,US/Pacific
602,WECCbus154,343.413,-59.17,910.7,159.5,march,19,25,weekend,US/Pacific
603,WECCbus154,343.3785,-59.34,916.3,159.2,march,20,25,weekend,US/Pacific
604,WECCbus154,343.3095,-59.71,929.0,158.8,march,21,25,weekend,US/Pacific
605,WECCbus154,342.93,-61.81,999.8,156.1,march,22,25,weekend,US/Pacific
606,WECCbus154,342.24,-65.45,1119.0,151.6,march,23,25,weekend,US/Pacific
607,WECCbus154,341.9985,-66.59,1155.0,150.2,march,0,26,weekend,US/Pacific
608,WECCbus154,342.2745,-65.28,1113.0,151.8,march,1,26,weekend,US/Pacific
609,WECCbus154,342.37800000000004,-64.75,1096.0,152.4,march,2,26,weekend,US/Pacific
610,WECCbus154,342.585,-63.71,1063.0,153.7,march,3,26,weekend,US/Pacific
611,WECCbus154,342.792,-62.51,1023.0,155.2,march,4,26,weekend,US/Pacific
612,WECCbus154,342.93,-61.9,1003.0,156.0,march,5,26,weekend,US/Pacific
613,WECCbus154,342.8955,-62.03,1007.0,155.8,march,6,26,weekend,US/Pacific
614,WECCbus154,342.861,-62.27,1015.0,155.5,march,7,26,weekend,US/Pacific
615,WECCbus154,342.7575,-62.78,1032.0,154.9,march,8,26,weekend,US/Pacific
616,WECCbus154,342.6885,-63.18,1045.0,154.4,march,9,26,weekend,US/Pacific
617,WECCbus154,342.2745,-65.21,1111.0,151.9,march,10,26,weekend,US/Pacific
618,WECCbus154,341.619,-68.39,1212.0,148.0,march,11,26,weekend,US/Pacific
619,WECCbus154,341.55,-68.66,1220.0,147.6,march,12,26,weekend,US/Pacific
620,WECCbus154,341.7915,-67.65,1189.0,148.9,march,13,26,weekend,US/Pacific
621,WECCbus154,342.171,-65.79,1130.0,151.1,march,14,26,weekend,US/Pacific
622,WECCbus154,342.654,-63.24,1047.0,154.3,march,15,26,weekend,US/Pacific
623,WECCbus154,342.9645,-61.59,992.5,156.4,march,16,26,weekend,US/Pacific
624,WECCbus154,343.1715,-60.52,956.6,157.7,march,17,26,weekend,US/Pacific
625,WECCbus154,343.344,-59.61,925.5,158.9,march,18,26,weekend,US/Pacific
626,WECCbus154,343.413,-59.17,910.7,159.5,march,19,26,weekend,US/Pacific
627,WECCbus154,343.3785,-59.34,916.3,159.2,march,20,26,weekend,US/Pacific
628,WECCbus154,343.3095,-59.71,929.0,158.8,march,21,26,weekend,US/Pacific
629,WECCbus154,342.93,-61.81,999.8,156.1,march,22,26,weekend,US/Pacific
630,WECCbus154,342.24,-65.45,1119.0,151.6,march,23,26,weekend,US/Pacific
631,WECCbus154,341.9985,-66.59,1155.0,150.2,march,0,27,weekday,US/Pacific
632,WECCbus154,342.2745,-65.28,1113.0,151.8,march,1,27,weekday,US/Pacific
633,WECCbus154,342.37800000000004,-64.75,1096.0,152.4,march,2,27,weekday,US/Pacific
634,WECCbus154,342.585,-63.71,1063.0,153.7,march,3,27,weekday,US/Pacific
635,WECCbus154,342.792,-62.51,1023.0,155.2,march,4,27,weekday,US/Pacific
636,WECCbus154,342.93,-61.9,1003.0,156.0,march,5,27,weekday,US/Pacific
637,WECCbus154,342.8955,-62.03,1007.0,155.8,march,6,27,weekday,US/Pacific
638,WECCbus154,342.861,-62.27,1015.0,155.5,march,7,27,weekday,US/Pacific
639,WECCbus154,342.7575,-62.78,1032.0,154.9,march,8,27,weekday,US/Pacific
640,WECCbus154,342.6885,-63.18,1045.0,154.4,march,9,27,weekday,US/Pacific
641,WECCbus154,342.2745,-65.21,1111.0,151.9,march,10,27,weekday,US/Pacific
642,WECCbus154,341.619,-68.39,1212.0,148.0,march,11,27,weekday,US/Pacific
643,WECCbus154,341.55,-68.66,1220.0,147.6,march,12,27,weekday,US/Pacific
644,WECCbus154,341.7915,-67.65,1189.0,148.9,march,13,27,weekday,US/Pacific
645,WECCbus154,342.171,-65.79,1130.0,151.1,march,14,27,weekday,US/Pacific
646,WECCbus154,342.654,-63.24,1047.0,154.3,march,15,27,weekday,US/Pacific
647,WECCbus154,342.9645,-61.59,992.5,156.4,march,16,27,weekday,US/Pacific
648,WECCbus154,343.1715,-60.52,956.6,157.7,march,17,27,weekday,US/Pacific
649,WECCbus154,343.344,-59.61,925.5,158.9,march,18,27,weekday,US/Pacific
650,WECCbus154,343.413,-59.17,910.7,159.5,march,19,27,weekday,US/Pacific
651,WECCbus154,343.3785,-59.34,916.3,159.2,march,20,27,weekday,US/Pacific
652,WECCbus154,343.3095,-59.71,929.0,158.8,march,21,27,weekday,US/Pacific
653,WECCbus154,342.93,-61.81,999.8,156.1,march,22,27,weekday,US/Pacific
654,WECCbus154,342.24,-65.45,1119.0,151.6,march,23,27,weekday,US/Pacific
655,WECCbus154,341.9985,-66.59,1155.0,150.2,march,0,28,weekday,US/Pacific
656,WECCbus154,342.2745,-65.28,1113.0,151.8,march,1,28,weekday,US/Pacific
657,WECCbus154,342.37800000000004,-64.75,1096.0,152.4,march,2,28,weekday,US/Pacific
658,WECCbus154,342.585,-63.71,1063.0,153.7,march,3,28,weekday,US/Pacific
659,WECCbus154,342.792,-62.51,1023.0,155.2,march,4,28,weekday,US/Pacific
660,WECCbus154,342.93,-61.9,1003.0,156.0,march,5,28,weekday,US/Pacific
661,WECCbus154,342.8955,-62.03,1007.0,155.8,march,6,28,weekday,US/Pacific
662,WECCbus154,342.861,-62.27,1015.0,155.5,march,7,28,weekday,US/Pacific
663,WECCbus154,342.7575,-62.78,1032.0,154.9,march,8,28,weekday,US/Pacific
664,WECCbus154,342.6885,-63.18,1045.0,154.4,march,9,28,weekday,US/Pacific
665,WECCbus154,342.2745,-65.21,1111.0,151.9,march,10,28,weekday,US/Pacific
666,WECCbus154,341.619,-68.39,1212.0,148.0,march,11,28,weekday,US/Pacific
667,WECCbus154,341.55,-68.66,1220.0,147.6,march,12,28,weekday,US/Pacific
668,WECCbus154,341.7915,-67.65,1189.0,148.9,march,13,28,weekday,US/Pacific
669,WECCbus154,342.171,-65.79,1130.0,151.1,march,14,28,weekday,US/Pacific
670,WECCbus154,342.654,-63.24,1047.0,154.3,march,15,28,weekday,US/Pacific
671,WECCbus154,342.9645,-61.59,992.5,156.4,march,16,28,weekday,US/Pacific
672,WECCbus154,343.1715,-60.52,956.6,157.7,march,17,28,weekday,US/Pacific
673,WECCbus154,343.344,-59.61,925.5,158.9,march,18,28,weekday,US/Pacific
674,WECCbus154,343.413,-59.17,910.7,159.5,march,19,28,weekday,US/Pacific
675,WECCbus154,343.3785,-59.34,916.3,159.2,march,20,28,weekday,US/Pacific
676,WECCbus154,343.3095,-59.71,929.0,158.8,march,21,28,weekday,US/Pacific
677,WECCbus154,342.93,-61.81,999.8,156.1,march,22,28,weekday,US/Pacific
678,WECCbus154,342.24,-65.45,1119.0,151.6,march,23,28,weekday,US/Pacific
679,WECCbus154,341.9985,-66.59,1155.0,150.2,march,0,29,weekday,US/Pacific
680,WECCbus154,342.2745,-65.28,1113.0,151.8,march,1,29,weekday,US/Pacific
681,WECCbus154,342.37800000000004,-64.75,1096.0,152.4,march,2,29,weekday,US/Pacific
682,WECCbus154,342.585,-63.71,1063.0,153.7,march,3,29,weekday,US/Pacific
683,WECCbus154,342.792,-62.51,1023.0,155.2,march,4,29,weekday,US/Pacific
684,WECCbus154,342.93,-61.9,1003.0,156.0,march,5,29,weekday,US/Pacific
685,WECCbus154,342.8955,-62.03,1007.0,155.8,march,6,29,weekday,US/Pacific
686,WECCbus154,342.861,-62.27,1015.0,155.5,march,7,29,weekday,US/Pacific
687,WECCbus154,342.7575,-62.78,1032.0,154.9,march,8,29,weekday,US/Pacific
688,WECCbus154,342.6885,-63.18,1045.0,154.4,march,9,29,weekday,US/Pacific
689,WECCbus154,342.2745,-65.21,1111.0,151.9,march,10,29,weekday,US/Pacific
690,WECCbus154,341.619,-68.39,1212.0,148.0,march,11,29,weekday,US/Pacific
691,WECCbus154,341.55,-68.66,1220.0,147.6,march,12,29,weekday,US/Pacific
692,WECCbus154,341.7915,-67.65,1189.0,148.9,march,13,29,weekday,US/Pacific
693,WECCbus154,342.171,-65.79,1130.0,151.1,march,14,29,weekday,US/Pacific
694,WECCbus154,342.654,-63.24,1047.0,154.3,march,15,29,weekday,US/Pacific
695,WECCbus154,342.9645,-61.59,992.5,156.4,march,16,29,weekday,US/Pacific
696,WECCbus154,343.1715,-60.52,956.6,157.7,march,17,29,weekday,US/Pacific
697,WECCbus154,343.344,-59.61,925.5,158.9,march,18,29,weekday,US/Pacific
698,WECCbus154,343.413,-59.17,910.7,159.5,march,19,29,weekday,US/Pacific
699,WECCbus154,343.3785,-59.34,916.3,159.2,march,20,29,weekday,US/Pacific
700,WECCbus154,343.3095,-59.71,929.0,158.8,march,21,29,weekday,US/Pacific
701,WECCbus154,342.93,-61.81,999.8,156.1,march,22,29,weekday,US/Pacific
702,WECCbus154,342.24,-65.45,1119.0,151.6,march,23,29,weekday,US/Pacific
703,WECCbus154,341.9985,-66.59,1155.0,150.2,march,0,30,weekday,US/Pacific
704,WECCbus154,342.2745,-65.28,1113.0,151.8,march,1,30,weekday,US/Pacific
705,WECCbus154,342.37800000000004,-64.75,1096.0,152.4,march,2,30,weekday,US/Pacific
706,WECCbus154,342.585,-63.71,1063.0,153.7,march,3,30,weekday,US/Pacific
707,WECCbus154,342.792,-62.51,1023.0,155.2,march,4,30,weekday,US/Pacific
708,WECCbus154,342.93,-61.9,1003.0,156.0,march,5,30,weekday,US/Pacific
709,WECCbus154,342.8955,-62.03,1007.0,155.8,march,6,30,weekday,US/Pacific
710,WECCbus154,342.861,-62.27,1015.0,155.5,march,7,30,weekday,US/Pacific
711,WECCbus154,342.7575,-62.78,1032.0,154.9,march,8,30,weekday,US/Pacific
712,WECCbus154,342.6885,-63.18,1045.0,154.4,march,9,30,weekday,US/Pacific
713,WECCbus154,342.2745,-65.21,1111.0,151.9,march,10,30,weekday,US/Pacific
714,WECCbus154,341.619,-68.39,1212.0,148.0,march,11,30,weekday,US/Pacific
715,WECCbus154,341.55,-68.66,1220.0,147.6,march,12,30,weekday,US/Pacific
716,WECCbus154,341.7915,-67.65,1189.0,148.9,march,13,30,weekday,US/Pacific
717,WECCbus154,342.171,-65.79,1130.0,151.1,march,14,30,weekday,US/Pacific
718,WECCbus154,342.654,-63.24,1047.0,154.3,march,15,30,weekday,US/Pacific
719,WECCbus154,342.9645,-61.59,992.5,156.4,march,16,30,weekday,US/Pacific
720,WECCbus154,343.1715,-60.52,956.6,157.7,march,17,30,weekday,US/Pacific
721,WECCbus154,343.344,-59.61,925.5,158.9,march,18,30,weekday,US/Pacific
722,WECCbus154,343.413,-59.17,910.7,159.5,march,19,30,weekday,US/Pacific
723,WECCbus154,343.3785,-59.34,916.3,159.2,march,20,30,weekday,US/Pacific
724,WECCbus154,343.3095,-59.71,929.0,158.8,march,21,30,weekday,US/Pacific
725,WECCbus154,342.93,-61.81,999.8,156.1,march,22,30,weekday,US/Pacific
726,WECCbus154,342.24,-65.45,1119.0,151.6,march,23,30,weekday,US/Pacific
727,WECCbus154,341.9985,-66.59,1155.0,150.2,march,0,31,weekday,US/Pacific
728,WECCbus154,342.2745,-65.28,1113.0,151.8,march,1,31,weekday,US/Pacific
729,WECCbus154,342.37800000000004,-64.75,1096.0,152.4,march,2,31,weekday,US/Pacific
730,WECCbus154,342.585,-63.71,1063.0,153.7,march,3,31,weekday,US/Pacific
731,WECCbus154,342.792,-62.51,1023.0,155.2,march,4,31,weekday,US/Pacific
732,WECCbus154,342.93,-61.9,1003.0,156.0,march,5,31,weekday,US/Pacific
733,WECCbus154,342.8955,-62.03,1007.0,155.8,march,6,31,weekday,US/Pacific
734,WECCbus154,342.861,-62.27,1015.0,155.5,march,7,31,weekday,US/Pacific
735,WECCbus154,342.7575,-62.78,1032.0,154.9,march,8,31,weekday,US/Pacific
736,WECCbus154,342.6885,-63.18,1045.0,154.4,march,9,31,weekday,US/Pacific
737,WECCbus154,342.2745,-65.21,1111.0,151.9,march,10,31,weekday,US/Pacific
738,WECCbus154,341.619,-68.39,1212.0,148.0,march,11,31,weekday,US/Pacific
739,WECCbus154,341.55,-68.66,1220.0,147.6,march,12,31,weekday,US/Pacific
740,WECCbus154,341.7915,-67.65,1189.0,148.9,march,13,31,weekday,US/Pacific
741,WECCbus154,342.171,-65.79,1130.0,151.1,march,14,31,weekday,US/Pacific
742,WECCbus154,342.654,-63.24,1047.0,154.3,march,15,31,weekday,US/Pacific
743,WECCbus154,342.9645,-61.59,992.5,156.4,march,16,31,weekday,US/Pacific
